#This is needed for bulk runs to allow job sizing
processors 2 1 1

#System parameters
variable	rho equal 0.8442
variable    T equal 1.1
variable	rc equal 1.122462
variable	srate equal 1.0

# Domain size and walls
variable	x equal 10
variable	y equal 24
variable	z equal 10
variable    wallwidth equal 1.0

# Set outside of domain to be wall
variable	ylo equal -1

#Thermostatted region outer half of wall
variable	ythemlo equal -0.5*1

#Add a buffer of empty space to prevent molecules moving too far they leave the domain
variable	buf equal 2.0
variable	ylobuf equal -1-2

#type    fluidtype 1
#type    lowertype 2
#type    lowersitetype 3

#Basic simulation setup
units		    lj
dimension	    3
atom_style      full
neigh_modify	delay 0 every 1
boundary		p f p

#Add a padded buffer at top and bottom as tethering allows molecules to wander slightly
lattice         fcc 0.8442
Lattice spacing in x,y,z = 1.6795962 1.6795962 1.6795962
region          simbox block 0 10 -3 24 0 $z
region          simbox block 0 10 -3 24 0 10
create_box      3 simbox bond/types 1 extra/bond/per/atom 1
Created orthogonal box = (0 -5.0387886 0) to (16.795962 40.310309 16.795962)
region		    latticeregion block INF INF -1 24 INF INF
create_atoms    1 region latticeregion
Created 10000 atoms

#Set wall region
region		    lower block INF INF -1 0.0 INF INF
group		    lower region lower
600 atoms in group lower
set		        group lower type 2
Setting atom values ...
  600 settings made for type
group		    wall union lower
600 atoms in group wall

#Set thermostatting region
region		    lowertherm block INF INF -1 -0.5 INF INF
group		    lowertherm region lowertherm
400 atoms in group lowertherm
group           nottherm subtract all lowertherm
9600 atoms in group nottherm

#Create a set of tethering sites (as molecules)
create_atoms    3 region lower
Created 600 atoms
group		    lowersites type 3
600 atoms in group lowersites
group		    sites union lowersites
600 atoms in group sites

#Get liquid molecules to a flow group
group		    flow subtract all wall sites
9400 atoms in group flow
group		    flow type 1
9400 atoms in group flow

#Create lj pair styles and set wall/site terms to zero
mass            * 1.0
pair_style      lj/cut 1.122462
pair_coeff       1 1 1.0 1.0
pair_coeff       1 2 1.0 1.0
pair_coeff       1 3 0.0 0.0

#pair_coeff       2 1 1.0 1.0
pair_coeff       2 2 1.0 1.0
pair_coeff       2 3 0.0 0.0

#pair_coeff       3 1 0.0 0.0
#pair_coeff       3 2 0.0 0.0
pair_coeff       3 3 0.0 0.0

#Set imaginary site particles to not interact
bond_style       harmonic
bond_coeff       1 150.0 0.0
create_bonds     many lowersites lower 1 0.0 0.0001
Generated 0 of 3 mixed pair_coeff terms from geometric mixing rule
Added 600 bonds, new total = 600
Finding 1-2 1-3 1-4 neighbors ...
     1 = max # of 1-2 neighbors
     0 = max # of 1-3 neighbors
     0 = max # of 1-4 neighbors
     1 = max # of special neighbors

velocity        flow create $T 97287
velocity        flow create 1.1 97287

compute		    thermallower lowertherm temp/partial 1 1 1
compute		    flow flow temp

#fix             1 flow nve
#fix             2 lowertherm nvt temp $T $T $(100.0*dt)

fix             1 all nve
fix	            2 lowertherm langevin $T $T 0.1 498094
fix	            2 lowertherm langevin 1.1 $T 0.1 498094
fix	            2 lowertherm langevin 1.1 1.1 0.1 498094

fix_modify      2 temp thermallower

fix             3 all wall/reflect yhi EDGE

fix		        5 lowersites setforce 0.0 0.0 0.0

#dump            3 all dcd 200 ./lammps/vmd_out.dcd
thermo          50
thermo_style	custom step temp epair etotal press pxy

#compute         layers all chunk/atom bin/1d y center 0.125 units reduced
#fix		        6 all ave/chunk 1 200 200 layers density/mass vx vy vz temp file profile.wall.2d

compute        Pressure all stress/atom NULL
#variable        Ptrace equals (c_Pressure[1]+c_Pressure[2]+c_Pressure[3])/3.

#Equilibration
run 1000
Generated 0 of 3 mixed pair_coeff terms from geometric mixing rule
Step          Temp          E_pair         TotEng         Press           Pxy
0   0.97545995     0              1.4630519      0.80815735     0.0009657215
Averages over the last 11 of 21 rows, steps 500 to 1000:
Temp E_pair TotEng Press Pxy
0.648411 -1.30042 -0.258384 4.99275 -0.0074646
Loop time of 0.671712 on 2 procs for 1000 steps with 10600 atoms

#write_data output_equil.dat
variable	nx equal 32
variable	ny equal 32
variable	nz equal 32
variable	Nevery equal 1
variable	Ncount equal 200
variable	Noutput equal 200

compute layers all chunk/atom bin/3d x lower 2.09949524 y lower 5.668637145915963 z lower 2.09949524 units box ids every
fix		        6 all ave/chunk 1 200 200 layers vx vy vz temp c_Pressure[1] file ./lammps/3dgrid norm none

#Try doing outputs with grids instead as chunks as paralell aware and smaller filesizes
fix  ave all ave/grid  1 200 200 32 32 32 mass vx vy vz temp c_Pressure[1] norm none
compute         ave all property/grid 32 32 32 id ix iy iz
dump            vtk1 all grid/vtk 200 ./grid/Ncount.*.vtr f_ave:grid:data[1]
dump            vtk2 all grid/vtk 200 ./grid/velocity.*.vtr f_ave:grid:data[2] f_ave:grid:data[3] f_ave:grid:data[4]
dump            vtk3 all grid/vtk 200 ./grid/temp.*.vtr f_ave:grid:data[5]
dump            vtk4 all grid/vtk 200 ./grid/Pressure.*.vtr f_ave:grid:data[6]

dump_modify vtk1 pad 8
dump_modify vtk2 pad 8
dump_modify vtk3 pad 8
dump_modify vtk4 pad 8

#Main Coupled Run
fix             cplfix all cpl/init region all forcetype Velocity xi 1.0 sendtype velocity bndryavg below
compute cfdbccompute all chunk/atom bin/3d x lower 2.099495239228134 y lower 5.668637145915963 z lower 2.099495239228134 ids every units box  bound x 0 16.79596191382507 bound y 17.63576000951632 23.30439715543229 bound z 0 16.79596191382507
fix cfdbcfix all ave/chunk 1 200 200 cfdbccompute vx vy vz  norm none
variable CPLSTEPS equal 0
group cplforcegroup dynamic all region cplforceregion every 1
dynamic group cplforcegroup defined
run	           160000
Generated 0 of 3 mixed pair_coeff terms from geometric mixing rule
Step          Temp          E_pair         TotEng         Press           Pxy
1000   0.64978659    -1.2883057     -0.24302383     4.981021       0.010032443
Averages over the last 98 of 196 rows, steps 5900 to 10750:
Temp E_pair TotEng Press Pxy
0.642173 -1.29771 -0.259788 4.99013 -0.00157839
     10800   0.62966543
